15
[1, 8, 13, 11, 14, 9, 4, 1, 8, 12, 4, 2, 2, 4]
[8, 15, 2, 10, 2, 3, 10, 3, 3, 8, 8, 8, 15, 9, 2, 1, 7, 2, 2, 15, 10]
14 ERNTDDSGXKRKMPUVFIHEHZAOCIUDQPTFWGXXTLCSKURBHPTMUHNG 2 9 5 5
11 UGWMOUEXRAZKIYQRKGZOKQGQ 7 4 15 14 14 3 9 6 1 11 9 11 3 3 3 14 7 11
4 ZKYYMRTPWGZQGEDDHEQDRQYQJTTIFXZXOUGNXRHU 2 3 15 9 12 12 9 6 7 15 3 6 5 3 1 9 4 4 15 9 3 9 8 2 7 4 2
5 IUJSRMUUTPTFCSIBHEMFKTJQDBTHPIFTQPJGWGDBROSEZRFUN 2 7 7 14 8 15 6 5 8 3 9 13 4 6 14 14 12 7
12 CSGUJXVWITYDOVWRYRJEBJDDYHFOVVGSYRCGAS 4 1 9 11 3 8 1 12 11 13 10
1 DWARKSUXRRFVUHOPSSE 6 3 12 1 15 11 11 14 7 13
13 FHEXIGZCKODRFYAWYGUWKKXHRXSFBZATGECJTLIGQKQXGKHP 7 7 14 8 2 8 8 13 3 8 1 4 11 6 15 10 5 1 15 6 12 11 14 9 6
4 QRDNCQECWCQXDQDJPHHBWQVWXSWJQZFMXHRJPT 9 11 8 5 13
15 VDCRBPSKTRCRVWCFCZQJVFYMI 7 10 10 8 1 13 5 3 7 3 10 15 9 8 3 11 14 7 8 1 6 4 12 1 7
4 YQKDBMWJLKOKCPCZJCIXUIYXTVJNSUOTEIS 4 4 12 7 5 6 3 1 14 1 5 5 13 4 12 13 9 3 2 14 15
2 GJAABSPQTLXSJEHZDDAXPTFCPJIFDW 12 5 12 1 1 2 11 2
7 LVXKLJMNOTECSYXC 10 13 5 11 1
9 YOZGWEAMXSUYNWGVYLSSRUUMMXIEBCSFQVIGJ 8 1 10 1 12 3 6 8 15 13 10 5 1 9 7 1 2
4 XZRXBDSBXUCQCLUMQUHR 5 7 12 11 11 12 6 12 1 15 12 8 4 2 10 14
9 EIWFFWFUQRWFKHGRLYBPZAJUIVC 12 6 11 5 6 15 4 14 10 5 8
2 QXMEVIOZPEJDDAXYIQFZICRSNGUGZEUAHONXM 1 12 14 6 14 10 8 1 9 7 14 3 13 9
14 XXZPJUBDLKTOOEIJODRLSYWXPIVX 5 2 7 7 7 10 14 6 2 12 1 11 6 3 14 1 5 1 9 11 12 4 1
8 HAINJVCFLJPJTJHBVULZIYWPVFXSTRXUCWTDRYKVJONMYQWB 10 11 7 7 7 15 13 8 5 6 13 14 2 11 4 3 14 2 1 12 8 2 11 9 14 10 13 4
5 FRSXBGUNRNWWPMXGCVXPYUQWINW 9 3 5 12 4 4 13 13 6 9 5 14 11 4 3 2 2 15 1
15 VUSFIARIXBYELWNPOLLZEBOQJRWUNGLRSIVIPEQ 3 14 1 8 13 3 6 12 4 4 14 12 7 4 13 15 9 5 8 11 10 7 9 11 14
13 WBYL 8 2 9 12 13 7 9 8 10 9 14 13 14 12 13 8 8 1 14 10 7 9 12 11 14 10 11 4 5 13
8 SPBQYSSFVUHHGWCCTFQXVXCMTJQDNNOHLSAMADASYRYERTM 12 11 5 15 1 14 9 8 12 13 3 5
3 JLLSULLRQBARHSXCQCEVDQZYYZQVKJPT 15 8 10
10 JGBUGNQMPKFSCXZJFDXAQYAMYOEJDMEJCVCHACXCUMPIAAYA 15 15 2 12 8 13 4 6 2 15 12 3 13 7 14
2 GWOLRDRTESAKITHFZLLICZCKPSULQUXXLVPWKLUDXSUTSFVBKJ 15 5 8 12 2 3 5 6 2 10 3 5
13 UZQMYGYTQRPLWGZ 2 4 12 5 4 10 10 7 2 5 4 13 1 15 4
6 HGNVZXEZHTKTJZVS 14 7 6 1 14 14 3 8 8 4 14 8 11 12 8 9 15 10 7 8 3 13 15 8 3 13 14 8
6 VGBBV 3 13 7 11 15 12 15 1 2 13 9 2 2 3 5 3 4 8 13 8 11 9 1
9 ZHZNZRG 14 7 3 5 8 10 13 6 2 13 12 6 6 10
4 XIPQETQVYMLCOUXIUYGCJHXTHYRGYKLRDWOCWHGJNHML 8
13 QEASXQZC 1 4 9 11 14 12 2 9 6 10 10 3 15
1 PRKYMAG 9 6 2 14 2 1 10 11 13 6 2 4 14
13 YYRSCHCMHGYGO 4 3 14 3 10 2 11 3 6 12 14 3 5 12 6 8 15 15 15
2 YHYTJYAFEAJJLLIXPVXPSHBYZFAQCLKWQWPVTWMM 8 9 5 7 5 13 10 15 1 1 14 12 6 10 8 15 11 8 6 13 1 13 13 13 14 3
5 BFJERZOENPWTPGRBVUAXLSCFMGYMUFPNBRXQKCEFAHIOWZ 1 14 8 15 11 13 15
5 JJZSJMBOXOVGNNSFYKSVOZIMLQMCPKWHAXMGDBFPQEYKBROZ 11 10 14 4 1 5 4 1 11 12 10 12 11 1 11 6 4 14 15 14 11 8 5 4 11 2 13 7
15 XJVDBIERQLFKRNJPQXCNWSLIZCH 12 14 1 8
14 ZGCJOBCGHYUBASFBMUJESFCKMWEKOHNBXFXLJQLSJILZNRGXBFMR 12 3 13 13 13 15 3 11 3 8 4 2 15 8 9 1 9 14
4 WWVACNDUZWKZJCCEUWEYKDTDGGXCXAFVHKMXCKDYKRCCHBQ 6
13 UETZOLDZOBPLEYJVHYXJVDKMPKAWAD 6 5 14 4 11 3 12 3 8 12 2
14 KDGSTNURQHQPJZBMQYSUTSZGDSXQPK 11 15 9 1 1 6 12 4 4 6 13 13 9 3 10 14 4 15 4 11 10 9 10 13 7 8
12 KQSDORAFLQVBZXXXUKPEWJZMINFWUFTEDNBENCIKE 1 6 9 13 7 10 1 10 6 12 6 10 8 9 4 5
14 IKDVSLHCDK 9 11 15 7 2 11 15 7 15 15 6 14 13 12 1 11 2 12 12 4 4 5 1 5 5 10 11 5 12
10 CSOUARMUDJYAZKTWLHLPRNMAPA 12 13 13 15 12 14 5 12 14 8 11 13 5 10 10 15 6 7 3 15 7 1 14 5
5 NQTOTKPQFRUEUTFMZ 8 9 1
10 OGCIPBLEXLNLKNZHSBIRZABUZBBNCKWUZREVKDMWWOMKCP 5 11 3 6 7 3 2 2 4 13 12 8 2 5 14 10 6 8 13 7 2 4 5 2 11 6 1 14
6 SEESPDOPNEYQZDSKTCPEVT 14 5 13 7 7 7 6 12 9 4 12 6 4 14 1 4 14 9 4 5
14 DJFWJIGPGJGQBJETNMFLMAIQ 1 3 8 15 3 10 13 1 5 13 15 4 1 10 13 5 7 3 6 7 5 1 8 9 9 3
11 XCFGRLFVXAZTAZGVOGNEIYOYBCRWMHQ 7 4 3 1 7 3 9 3 5 13 7 5 3 14 11 4 4
10 VDAYYYILVEYTDLWAHMIF 1 4 15 6 12 14 6 2 2 12 9 2 10 14 11 2 7
14 IMWTEPAU 4 8 1 7 15 5 1 15
10 SYNUYUZIJODPMHBUTAPRJUWLLZJCOSICUEF 8 11 2 9 1 9 6 15
10 MWZCYPRZOUJMHOTQWLRZNVBVXTKWVQQWWRXCNYXNCBXWPIH 15 11 14 15 6 13 9 13 5 11 10 12 15 2 11 11 9 12 2 3 15 11 2 15
12 PVCLLJYBDFRCBELOZPNBKWVFUPHACIIDOB 14 15 5 7 6 14 3 2 7 6 8 1 2 7 7 2 14 14 12 3 4 9 4 7
5 KIIMQGWXGRZDCLWUOIIOWNU 7 2 2 10 13 13 14 13 10 4 12 7 12 13 13 6 3 7 12 8 13 11 3 15 14 15 1
3 RHKNOMPRKCJMJAXTHNXGWKUH 7 4 14 11 13 8 2 10 5 12 13 8 15 15 13 9 12 1 6 2
4 ZUBVSUUPVZBFMELJJOIHUFWLHYJUXAKENBKLLBEALOYRFV 3 11 13 5 10 6 4 8 11 2 8 5 4 11 6 9 5 8 10 14 3 4 1 9 12 1 9 14 10
14 ZSJOHCEKUDEGRIAHNLVPLOGZDRXQG 9 4 13 5 6 12 4 3 8 8 15 7 5
8 TJPCCGIVOPFBYVKPDNCHQFRTYBIOHDLTTEEGIYQRECJF 11 5 8 14 14 15 4 3 13 2 4 12 2 15 4 13 7 7
11 EPGCBAKRLLIAYFKZEXEKTZVAFNOKIWUGMWIEBEDFQIKW 1 15 10 1 7 10 3 15 8 6 3 13 9 12 10 9 9 1 10 15 8 15 15 10 13
12 PBLAXCFJKRWV 6 9 13 3 4 6 14 7 6 9 4 10 13 15 10 7 11 9 2 10 10 2 7 4 3 4
2 JBTVDWFPSOZKPFZRIFIEBEVXPGGRQNVQXHDYGJVIUOAXDSDRZMR 10 5 1 14 1 5 12 13 15
12 LYWTGTSXLFKVJAWLJMZAUQZUSOXXFFTCVBNCOTFFREYW 1 13 15 15 13 4 2 15 3
6 EICVFUWEMVRIKLDRIGTQNY 15 5 4 12 1 9 1 7 7 12 14 5
10 GZRDCOGDUANEUIDG 2 10 6
12 HSARXEFMAZCLPHKM 3 9 9 7 8 10 14 12 8 13 6 9 15 6 11 2 9 12 1 14 10
7 OS 14 10 10 11 8 15 2 10
14 FLSRPURXNQRMDWPUXBTREQIDJUZQHZP 3 7 5 5 12 10 7 10 13 4 9 6 3 5 8 9 2 8 8 8 9 7 9 6
6 GZUKZNRVUUBHVTPR 2 2 6 2 3 3 10 2 12 9 12 1 10 14 9 12 5 8 4 5
11 CGNYNKMAXFZJBQWPGSQRNDN 11 13 15 14 7 1 1 7 15 9 14 14 6 10 3 10 9 13
11 MCZJJ 11 2 15 14 8 12 4 11 7 12 8 13 14 12 13 2 15 1 15
2 JETOCSVHLSJRRI 9 7 10 2 2 4 1 4 7
11 JNTEQTUAHUKETKVUZXCUGBQQIQL 10 10 9 3
14 TCSNOSNFKUJQBMUQFTHKQPGJBKPHRCYYNCUOROUJJDCGIZSSB 11 5 6 6
9 JFITIQJCGONEJQCPEGFS 14 2 3 8 5 11 2 4 5 13 8 2 1
6 YKJKGYA 15 14 15 4 2 6 11 14 9 9 9 14 7 4 7 8 8 13 1 8 15 6 12 15 15 1 14 14 13
1 IQGBFAUYSRDXSAPSIDREHBHEPAGQPVZRUPMEJXLAWWODZFN 3 13
2 EBSWONAJGNKWDMRAXSFPNUYVGFZ 1 7 13 8 8 5 8 10 7 15 2 11 12 4 6 2 15 2 13 14 15 9 12 5 5 9 9 15 9 9
10 CONCYIBEYKAZRSOQUOOVPPAPJJFJHXVIPFBMJEVKNEM 13 15 10 3 3 4 5 3 13 8 7 5
8 QECDIUCDSFPFXRWYELFRBAUPRZMUKPQKTVDIPETMAVZBFHR 4 8 11 14 3 7 8 9
4 NTGGCBPIDMZNZLXNVGKHG 10 13 5 8 14 11 15 15 8 15 7 12 3 6 9 2 1 2 3 14 3 3 2 14 9
7 XCAZIPNNMUJRBSQLFLDRGTPGAN 15 11 15 3 11 13 4 11 12 10 6 5 1 3 9 5
1 TTLQKZUNBVCPTWMWMUHWXCXQZRUQXLVKPKWZZPFZRZGCYBEQOZKB 1 1 12 9 8 10 8 7 12 3 1 15 14 12 12 10 1 7 14 6
6 NHTCJGNCHMOBPBVHGFLQDXZYZZVC 11 2 15 2 5 1 11 6 2 13 15
1 EEDRFCBRNQN 1 2 8 11 10 2 13 12 9
7 TCDOGQXZOUIECEVMLLUKZNBFIHD 15 13 7 5 9 7 4 4 14 8 11 4 6 15 10 12 1 8 4
2 GXBJNYNXRE 3 5 13 5 4 4 2 12 7 11 6 7 12 6 9 2 1 14 4 9 10 14 9 15 13 4
11 YXLWIHEXMAKMYBFRMBAQPSO 10 15 10 13 15 8 6 5 3 12 8 7 11 10 11 4 7 9 6 3 12 10
7 IEMVHYEPAHYNYCWNRQWRVDINTJZE 10 2 8 7 6
9 MBSEORELOALYDXNTVZMAQIYPJVKTUPJYFCNG 8 4 2 7 14 8 9 7 14 9 14 2 4 9
8 MDDXTCEGLVTZZTZQMINDEPVFYICRVJ 7 9 9 4 2 15 9 4 4 6
15 XQLHWPZQOWTFKMNIIVGGULYETUKTNXUSEYDGIVPTQOHCD 11 2 4 4 15 9 8 2 7 14 9 9 9 14 2
11 FBXVXCUDWFLOLEKUIESZNBQD 5 7 6 13 14 1 4 3 13 12 4 2 3 4 3
3 FEVERRASDHJIJYA 7 13 5 8 6 1 5 6 7 7 11 2 10 15 14 3 3 12 10 2 11 5 6 13 12 7 10 2 1
12 GBKPIMDK 11 6 7 6 14 5 15 9 1 8 5 4 3 11 5 2 15 9 3 3 14 14 6 9 11 4 7
12 FCFP 12 2 1 13 2 7 6 14 9 13 2 15 5 3 12 6
11 YJN 8 2 10 7
3 MLMKHSIMC 13 4 11 7 6 4 13 12 7 14 1 6 2 3 14 4 12 3 3 3 1 7 11 6 9 4 3 8
8 DRGTZTCBJWOWHMVSWKCA 7 11 9 10 12 5 1 8 6 6 2 2 14 8 14 6 6 2 15 13 13 13 8 13 10 14 7 3 4 5
9 VYTTQGSOQBDPZUYGYUQRHYPWYBRQ 5 10 13 11 14 11 10 8 1 3 5 14 5 3 9 4 7 12 3 1 8 4 10 12
15 NMBSJIKQCOINQDSGLWQFQWFQKQHG 8 6 11 3 8 3 3 9 15 8 12 1 9 6 8 1 2 9 5 8 11 11 3 6 1 15 10 1 1
12 MDSUXIDUPOKORAULFDPHULYFVWIYQ 15 1 8 5 6 1 6 7 1 10 5 10 14 4 2 13
4 CKGDRTLWYXSSZTWRBCPVCXRXMOUDKJDHLTHBASUSZOH 10 7 5 2 4 13 7 7 4 10 1 11 11 5 14 7 10 9 10 10 6 5 4 1 12 3
14 KCJKXXXXYUACVORLLSUWXFFZDAJRMFSFRKNDDQIG 7 5 14 2 5 9 8 1 7 10 11 15 15 15 8 5 14 8
12 YNVFHOFBTPHUOZUOHKMCWOJUAVNLARXXMIJFYOZBSOARKT 10 8 7 8
5 VSZJUKJIKVYVRXMWHWONBCYJYTOHIUIWGYZLISRXIZBNULDCHX 6 9 7
14 BJZWGGJBPRWZDZIWBZQZOBLTORPYILOJRJTNMSGOGKIN 10 15 7 2 11 9 3 7 8 12 7 5 7 14 7 1 8 7 1 1 14 1 6 3 9
12 KKLNRRKOWP 7 11 11 15 15 9 6 5 11 6 8 5 10 11 10 14 8 6 13 13 8 7 6 15 5 12 1 11 2
14 UAOQZEHEVPPFHBJGUBPDUTLRDJKPYSLGJZNUKG 5 7 6 14 14 1 13 7 3 5 4 10 4 5 2 10 15 8 8 2 8 11 3 2 12 5 7 8 15 2
2 SELSDQUKGXDJWYY 3 8 14 4 13 10 11 8
5 KUTCYZNOOYRWNAKIUSFVNMNJWMSACXJDCN 13 12 11 1 6 4 11 4 9 6 9 2 1 10
13 HRONIPYFCRQHXHYSVEFPXFTVUWRKNHZLNPPRULBQJTAP 15 12 12 4 11 14 1 13 6 9 5 4 14 6 4 4 6 14 5 10 4 14 4
3 IBELSURYYTCKBNNGWQHUWMKGRIXFDKMZRRQYMNNPIJTV 15 9 4 13 15 1 11 8 2 3 9 5 10 5 1 13 7 15 9 3 10 2 12 6 5 13 4
3 PFNJVLFDBDIJSNTCLP 5 5 15 13 6 4 9 1 12 7 14 5 7 10 6 7 5 12 15
13 ZOXURGGHSSVJFBKHSZSNGG 10 4 5 5 9 14 9 8 7 6 7 10 1 11 2 14 4
6 MWSAXAP 4 8 4 4 14 6 14 6 14 15 1
14 AVSVTSKNHWZYVGTXFOTPKPFFZJKRP 7 9 13 14 1
6 EDNGJOULOLYVGIJHSJXUIYRKYUKZSHOQKTIRLGCVLOHWKBZYEJ 13 15 14 1 11 1 1 3 8 10 4 14 5 2 2
4 HR 2 9 11 2 15 15 6 7 14 12 1 9 10 12 15 12 5 15 10 7 7
12 OGTVCRHOCCQGEVBQZUNQNYOZHK 12 11 8 9 1 1 2 11 3 5 5 3 5 8 9 14 9 6 9 6 13 11 7 11 1 1
10 ULQFIJWLTQWASAEBZEP 7 7 1 7 3 6 12 12 2 2 8
4 OWGCQJDFTTCVYTEVOLUKIGILEKAHPOBDT 15 3 5
13 N 15 13 14 12 6 6 14 6 8 1 3 6 4 2 7 14 13 1 5 1 1 4 8
9 WPIEJLHBMKIMDV 7 10 9 8 12 12 11 13 9 13 15 7 8 15 5
5 TCXJZJQKRFUEKJMIFBDJTGGYA 5 10 2 15 8 1 13 2 7 7 3 13 14 9 14 14 15 7 9 3 2 13 1
3 STBRXQYBXYRP 1 15 7 7 2 4
13 JODKCXSXOBKM 4 9 9 14 13 5 15 8 12 9 7 14 9 8 9 5
10 KNIYMBEJPBOLTYAXMVAYZTHNFXTRMRU 15 14 12 3 13 14 12 8 2 13 8 13 6 6 8 13 2 10 13 15 5 4 14 6 6 10 15 11 13 4
7 PHAKWBIEYALKLLYMM 12 13 1 4 10 5 4 9 14 14 1 6 11 14 8 2 9 7 15 13 10 5 7 9 11 7 8 1 15
4 JRXNMVRZWSFOWSDBX 7 14 2 9 6 15 9 9 4 11 8 10 1 15 10 14
13 HJWKZFSDQDDPKOOCIOXUAXEAXCCYAWGMPHJXABUAKUXST 9 1 10 10 15 15 14 14 3 15 12 6 1 5 5
8 YIMEWSQHXHRHLWPAUAQNAQBXMWHRQELAAQRHBMDEUOY 12 2 1 12 15 4 15 13 5 13 13 15 7 5 9 10 4 1 14 4 10 4 9 3 8 2
4 ZIQWHJAUNIKEI 8 5 8 5 2 12 14 8 9 4 5 10 12 3 7 2 3 6 8 8 9 10 11 14 2
3 DUUWOSERAVYGMWNOKISQAWEFKZPFMTHGLRMIMUPAHUAARXQHPW 1 7 3 15 13 7 15 7 11 7 14 13 4 5 10 4 15 1 12 10 7 15 11 9 6 1 8 5 3
10 RKFIIWMWSNTCOKYWSBJVSOLTIRQGFW 7 10 13 12 6 3 2 6 14 3 9 5 2 11 11 4 13 10 7 12 11 15 3 15 10 15 7
12 LKJAZTX 4 9 15 13
9 OGYATAXYRHXOZTTBSSUAJEVOMRPILNDRPIHPABMKU 3 7 12 9 2 3 15 4 13 10
14 VGYMKRKNBUKARGLCPBMUHN 8 10 4 15 7 15 4 5 9 5 15 12 3 11 7 9 12 14 10 1 15 13 9 1
14 EJWIEQUKIZJVWEWPFOSSVIANTMA 15 13 4 2 4 2 2 5 14 8 12 15 9 2 10 14 11 3 2
13 JAKTQJNXAELLHNNNZEPXPJIZSMMBR 15 9 15 6 12 15 11 12 14 14 9 5 6 12 11 8 3 3 12 10 2 3 12 11 5 15
3 RNDLFJRFJDQXHQWHEOJC 13 6 11
6 N 2 12 6 15 11 1 14 1 5 7 12 8 14 10 10 7 12 10 12 1 4 13 11 8 2 6 6 1 13
XBFZTUBQWCKMKXGRZDOAJBKXMMBFBOAXURRNACJZTOUSFGEWSCCNZSMGOYBDFZSNSBCGFSZTBUQAZSLFUXSRT
